R1 N004 N003 1k
V2 N001 0 10
V3 N003 N002 AC 1 45
V1 N002 0 5
M2 N001 N004 0 NMOS
C2 N001 N004 10n
C1 N004 0 100n
.ac dec 10 10 100k
.end
