V1 N001 0 5
R2 N002 N005 90k
R3 N002 N003 220k
R1 N005 0 5k
R4 N001 N003 10k
V2 N004 0 AC 1 0
C1 N002 N004 100n
Q1 0 N002 N003 NPN
.ac dec 10 10 100k
.end