V1 N004 0 5
R1 N005 N001 90k
R2 N001 N002 220k
R3 N005 0 5k
R4 N004 N002 10k
V2 N003 0 AC 1 0
C1 N001 N003 100n
Q1 0 N001 N002 PNP
.ac dec 10 10 100k
.end
