V1 N002 0 2
V2 N003 0 AC 1 0
V3 N004 N003 5
C1 N002 N001 100u
R1 N001 N004 1000
M1 N002 N004 0 NMOS
.ac dec 10 10 100k
.end