V1 N001 0 5
V2 N004 0 AC 1 0
Q1 N003 N002 0 NPN
C1 N002 N004 100n
R2 N005 N002 90k
R3 N003 N002 220k
R4 N001 N003 10k
R1 N005 0 5k
.ac dec 10 10 100k
.end
